190

Ag         8.36615       11.09400        5.43091
Cl         8.36615       11.09400        7.74046
O         12.24118        9.63780        5.10811
O          9.26083        6.78243        6.36854
O         11.25297       13.60457        5.60764
O         14.88840       10.59166        5.53071
O         11.27088        6.08173        8.05262
O         11.70759       14.48588        8.19068
O         14.18564       13.31990        5.84687
O         13.21182        7.98901        7.18950
O          9.11743       15.56932        8.65543
O         12.08524       11.00281        3.21957
O         10.62501        6.37572        4.51162
O         10.86729       15.80296        4.93844
O         12.05395        7.54614        2.29006
O          9.31320       16.17283        2.58514
N          9.24962       11.68620        2.51875
C          8.36615       11.09400        3.32918
C         12.95415       10.24420        4.07742
H         13.42600        9.54528        3.54100
C         10.33722        6.05067        5.84793
H         10.13308        5.07440        5.91326
C         11.51350       14.96803        5.87216
H         12.49903       15.12556        5.81631
C          8.90995       11.46676        1.20668
H          9.37176       11.79070        0.44262
C         13.97314       11.20938        4.65916
H         14.47679       11.63761        3.90986
C         11.55031        6.37017        6.70788
H         12.31163        5.79107        6.41069
C         11.04666       15.30750        7.26116
H         11.27590       16.26159        7.45402
C         13.26537       12.29881        5.46748
H         12.88722       11.88611        6.29582
C         11.96192        7.81905        6.56456
H         11.28426        8.40260        7.01245
C          9.53407       15.13443        7.36866
H          9.31320       14.16260        7.26854
C         12.13426       12.95335        4.69183
H         12.50572       13.61899        4.04475
C         12.07403        8.21178        5.09335
H         12.87885        7.77911        4.68761
C         11.28426       11.92161        3.94991
H         10.73377       11.41573        4.61384
C         10.82580        7.80352        4.32824
H         10.04273        8.28500        4.72028
C          9.42865       15.70245        4.90998
H          9.18101       14.78830        4.58855
C         10.36231       12.56950        2.93924
H          9.98416       13.39711        3.33128
H         10.88771       12.82688        2.14146
C         10.84420        8.05424        2.84018
C          9.02038       16.70535        3.86559
H          8.05158       16.89394        3.93937
H          9.51399       17.55293        4.00049
C         15.72502        9.63625        4.89733
H         16.15504       10.04673        4.11747
H         15.18623        8.87076        4.60963
H         16.41271        9.33449        5.52860
C         11.11025        4.83033        8.61012
H         10.78731        4.20906        7.91878
H         10.46271        4.87470        9.33834
H         11.97363        4.51304        8.94946
C         12.25641       15.14997        9.28670
H         13.03613       15.66917        8.99689
H         12.53082       14.49542        9.96223
H         11.58712       15.75570        9.67031
C         14.69431       13.17302        7.16948
H         15.24312       12.36093        7.22006
H         13.94805       13.10201        7.80075
H         15.24312       13.95181        7.39711
C         13.27541        9.07267        8.10004
H         13.11310        9.91360        7.62159
H         14.16389        9.10152        8.51422
H         12.59440        8.95730        8.79560
C          8.33436       14.63742        9.36680
H          7.53288       14.41776        8.84619
H          8.06832       15.02350       10.22781
H          8.85473       13.82090        9.52172
C         12.10917        7.87674        0.89684
H         11.27924        7.59273        0.46054
H         12.86881        7.41745        0.48162
H         12.21625        8.84414        0.79567
C          9.07393       17.15354        1.59345
H          9.29145       16.78744        0.71136
H          9.63613       17.93678        1.76839
H          8.13022       17.41758        1.61558
C          8.81290       15.91545        6.28106
H          8.81959       16.88951        6.50659
O          4.49112       12.55020        5.10811
O          7.47147       15.40557        6.36854
O          5.47933        8.58343        5.60764
O          1.84390       11.59634        5.53071
O          5.46142       16.10627        8.05262
O          5.02471        7.70212        8.19068
O          2.54666        8.86810        5.84687
O          3.52048       14.19899        7.18950
O          7.61487        6.61868        8.65543
O          4.64706       11.18519        3.21957
O          6.10729       15.81228        4.51162
O          5.86501        6.38504        4.93844
O          4.67835       14.64186        2.29006
O          7.41910        6.01517        2.58514
N          7.48269       10.50180        2.51875
C          3.77815       11.94380        4.07742
H          3.30630       12.64272        3.54100
C          6.39508       16.13733        5.84793
H          6.59922       17.11360        5.91326
C          5.21880        7.21997        5.87216
H          4.23327        7.06244        5.81631
C          7.82235       10.72124        1.20668
H          7.36054       10.39730        0.44262
C          2.75916       10.97862        4.65916
H          2.25551       10.55039        3.90986
C          5.18199       15.81782        6.70788
H          4.42067       16.39693        6.41069
C          5.68564        6.88050        7.26116
H          5.45640        5.92642        7.45402
C          3.46693        9.88919        5.46748
H          3.84508       10.30189        6.29582
C          4.77038       14.36895        6.56456
H          5.44804       13.78540        7.01245
C          7.19824        7.05356        7.36866
H          7.41910        8.02540        7.26854
C          4.59804        9.23465        4.69183
H          4.22658        8.56901        4.04475
C          4.65827       13.97622        5.09335
H          3.85345       14.40889        4.68761
C          5.44804       10.26639        3.94991
H          5.99853       10.77227        4.61384
C          5.90650       14.38448        4.32824
H          6.68957       13.90300        4.72028
C          7.30365        6.48555        4.90998
H          7.55129        7.39970        4.58855
C          6.36999        9.61850        2.93924
H          6.74814        8.79089        3.33128
H          5.84459        9.36112        2.14146
C          5.88810       14.13376        2.84018
H          6.57747       13.70553        2.34697
C          7.71192        5.48266        3.86559
H          8.68072        5.29406        3.93937
H          7.21831        4.63507        4.00049
C          1.00728       12.55175        4.89733
H          0.57726       12.14127        4.11747
H          1.54607       13.31724        4.60963
H          0.31959       12.85351        5.52860
C          5.62205       17.35767        8.61012
H          5.94499       17.97894        7.91878
H          6.26959       17.31330        9.33834
H          4.75867       17.67496        8.94946
C          4.47589        7.03803        9.28670
H          3.69617        6.51883        8.99689
H          4.20148        7.69258        9.96223
H          5.14518        6.43230        9.67031
C          2.03799        9.01498        7.16948
H          1.48917        9.82706        7.22006
H          2.78425        9.08599        7.80075
H          1.48917        8.23619        7.39711
C          3.45689       13.11533        8.10004
H          3.61920       12.27440        7.62159
H          2.56841       13.08648        8.51422
H          4.13790       13.23070        8.79560
C          8.39794        7.55058        9.36680
H          9.19942        7.77024        8.84619
H          8.66399        7.16451       10.22781
H          7.87757        8.36710        9.52172
C          4.62313       14.31126        0.89684
H          5.45306       14.59527        0.46054
H          3.86349       14.77055        0.48162
H          4.51605       13.34386        0.79567
C          7.65837        5.03446        1.59345
H          7.44085        5.40056        0.71136
H          7.09617        4.25122        1.76839
H          8.60207        4.77042        1.61558
C          7.91940        6.27255        6.28106
H          7.91270        5.29849        6.50659
O          5.58357       10.32630        9.13178
H          6.08554       10.82109        8.65965
H          5.10503        9.74053        8.71972
Cl         7.11457        3.37369        8.81246
Cl         9.62777        2.98296        7.49723
Cl         9.51231        3.38589       10.37008
C          8.82294        3.78305        8.89782
H          8.90828        4.77042        8.77663
C         12.24804        5.29406        8.59958
H         12.31330        4.45757        8.09478
H         12.02383        5.09658        9.53225
H         13.10474        5.76666        8.56269
H         10.01051        7.56175        2.38488
H         10.78119        9.10608        2.65424
