137

 Cu                 0.03016000   -0.11837100    0.21673000
 Cl                 0.11193000   -0.09459100   -1.87974000
 N                 -0.06555000   -1.13701100    3.00876000
 N                 -0.10050000    1.00447900    2.94635000
 C                 -0.04550000   -0.08797100    2.16330000
 C                 -0.13901000   -0.70400100    4.30412000
 H                 -0.16425000   -1.37675100    5.13580000
 C                 -0.16492000    0.64900900    4.26354000
 H                 -0.22072000    1.36886900    5.05331000
 O                 -0.23613000   -3.79446100    0.06205000
 O                  1.82141900   -6.02458100   -0.17960000
 O                  4.42057000   -4.75099100    0.12460000
 O                  2.30574000   -2.94141100    2.46052000
 C                  0.80487000   -4.17737100    0.93652000
 H                  0.47837000   -4.98097100    1.61251000
 C                  2.03590000   -4.66957100    0.14981000
 H                  2.12957000   -4.05710100   -0.75372000
 C                  3.32909000   -4.52889100    0.97590000
 H                  3.31302000   -5.27387100    1.79049000
 C                  3.41911000   -3.11814100    1.61364000
 H                  4.29254000   -3.04633100    2.27454000
 C                  1.10921000   -2.88401100    1.70600000
 H                  1.20295000   -2.10028100    0.93766000
 C                 -0.05023000   -2.52810100    2.63383000
 H                 -0.97690000   -2.77334000    2.10843000
 H                  0.02539000   -3.12847100    3.54308000
 C                  2.31540900   -6.40635100   -1.45093000
 H                  3.39162900   -6.23317100   -1.51961000
 H                  1.79798900   -5.85078100   -2.23807000
 H                  2.10179900   -7.46990100   -1.54341000
 C                  5.61879000   -4.98606100    0.69939000
 H                  6.29228000   -5.30798100   -0.09670000
 H                  6.06073000   -4.09532100    1.17109000
 O                  3.46391000   -2.17472100    0.59784000
 O                  5.57158000   -1.99914100   -1.22009000
 O                  5.94215000    0.63714900   -2.25929000
 O                  4.67056000    1.25912900    1.12283000
 O                  4.65919000   -0.59600100    3.41913000
 C                  4.41492000   -1.12512100    0.66003000
 H                  5.29469000   -1.43049100    1.23904000
 C                  4.83740000   -0.87524100   -0.79527000
 H                  3.93140000   -0.74763100   -1.39905000
 C                  5.67806000    0.40543900   -0.90030000
 H                  6.62070000    0.25789900   -0.34656000
 C                  4.91599000    1.57223900   -0.23149000
 H                  5.54711000    2.46845900   -0.20974000
 C                  3.81163000    0.14510900    1.28575000
 H                  2.85236000    0.34589900    0.77950000
 C                  3.54587000   -0.02174100    2.78176000
 H                  3.32964000    0.96854900    3.21368000
 H                  2.66815000   -0.66761100    2.91794000
 C                  5.26825000   -2.43404100   -2.52773000
 H                  5.89954000   -3.30258100   -2.70547000
 H                  5.48762000   -1.65442100   -3.26296000
 H                  4.21620000   -2.72612100   -2.60610000
 C                  6.89925000    1.63739900   -2.52267000
 H                  7.81813000    1.46182900   -1.95125000
 H                  6.52076000    2.63902900   -2.29527000
 H                  7.11364000    1.57040900   -3.58784000
 C                  4.40938000   -0.89010100    4.77007000
 H                  5.32510000   -1.32176100    5.16850000
 H                  3.58723000   -1.61052100    4.86778000
 H                  4.15708000    0.01590900    5.33538000
 O                  3.73563000    1.80129900   -0.93283000
 C                  0.91419000    4.68701900   -0.67428000
 H                  0.26304282    5.40026361   -1.13492029
 O                  0.14854000    3.66837900   -0.08078000
 O                 -1.86338000    5.94492000   -0.30529000
 O                 -4.50213000    5.02998000    0.45084000
 O                 -2.38631000    2.79123000    2.33615000
 C                 -0.87008000    4.05176000    0.82459000
 H                 -0.49915000    4.81648900    1.52363000
 C                 -2.11134000    4.61202000    0.10282000
 H                 -2.31886000    3.97551000   -0.76322000
 C                 -3.31957000    4.57294000    1.06142000
 H                 -3.08685000    5.18652000    1.94359000
 C                 -3.51312000    3.12177000    1.54636000
 H                 -4.37461000    3.05460000    2.22377000
 C                 -1.20682000    2.74017000    1.56146000
 H                 -1.30866000    1.97441000    0.77635000
 C                 -0.04555000    2.36377900    2.48186000
 H                 -0.05639000    3.02503900    3.35123000
 H                  0.87683000    2.51455900    1.91523000
 C                 -2.24848000    6.22720000   -1.63963000
 H                 -1.67792000    5.61092000   -2.33932000
 H                 -2.01761000    7.27973000   -1.79749000
 H                 -3.31906000    6.05782000   -1.78684000
 C                 -4.85501000    6.35938000    0.76720000
 H                 -4.06244000    7.06235000    0.49772000
 H                 -5.07798000    6.46215000    1.83575000
 H                 -5.75135000    6.57459000    0.18869000
 O                 -3.66501000    2.29497000    0.44494000
 O                 -5.86149000    1.81709000   -1.41727000
 O                 -5.87647000   -0.78315000   -2.35209000
 O                 -4.68588000   -1.20891000    1.07791000
 O                 -4.47679000    0.79963000    3.39367000
 C                 -4.54043000    1.17814000    0.53641000
 H                 -5.42904000    1.44024000    1.12539000
 C                 -4.96497000    0.85867000   -0.91251000
 H                 -4.06098000    0.80235000   -1.53344000
 C                 -5.69734000   -0.48496000   -0.99252000
 H                 -6.67317000   -0.36864000   -0.49293000
 C                 -4.91551000   -1.59214000   -0.25315000
 H                 -5.53679000   -2.49295000   -0.19597000
 C                 -3.84682000   -0.03446000    1.18901000
 H                 -2.91422000   -0.23639000    0.64007000
 C                 -3.52729000    0.19111000    2.61351000
 H                 -3.29797000   -0.81185000    3.04453000
 C                 -5.27377000    2.93175000   -2.05352000
 H                 -4.82838000    3.61565000   -1.32783000
 H                 -6.08707000    3.43204000   -2.57808000
 H                 -4.51492000    2.61340000   -2.77566000
 C                 -6.84501000   -1.76738000   -2.62335000
 H                 -6.53331000   -2.75985000   -2.28007000
 H                 -6.95689000   -1.78296000   -3.70585000
 H                 -7.80492000   -1.51259000   -2.15883000
 C                 -4.04956000    1.11935000    4.69195000
 H                 -3.21178000    1.82681000    4.66223000
 H                 -3.73638000    0.21961000    5.23836000
 H                 -4.90134000    1.57268000    5.19289000
 O                 -3.72277000   -1.85189000   -0.93172000
 H                 -2.59067000    0.75737000    2.67081000
 H                  5.57006900   -5.78334100    1.46094000
 C                  3.29971107    3.14982764   -1.12347413
 H                  3.35827791    3.40013658   -2.16213450
 H                  2.28798039    3.24822627   -0.78938023
 H                  3.92669799    3.81015859   -0.56155738
 C                 -1.00523908   -4.82571339   -0.56236151
 H                 -0.75194028   -4.88062105   -1.60049680
 H                 -0.79203946   -5.76340716   -0.09313202
 H                 -2.04722452   -4.60474800   -0.46067252
 H                  1.55944495    4.26271249   -1.41489464
 H                  1.50287043    5.17343696    0.07522178
 C                 -3.80531054   -3.12945604   -1.56883229
 H                 -3.08179787   -3.18321494   -2.35530505
 H                 -3.61018866   -3.89902281   -0.85147990
 H                 -4.78570620   -3.26207099   -1.97643211