22
Structure 1
Ag              1.31218            -0.43173            -0.01481
Cl              1.72364            -0.17965            -2.31165
N               1.32196             0.32030             3.02400
C               0.71882            -0.34803             2.00143
N              -0.35470            -0.95178             2.58375
C              -1.31229            -1.79456             1.87307
C               0.63811             0.13359             4.22343
H               0.95982             0.58351             5.14647
C              -0.41766            -0.66736             3.94620
H              -1.19714            -1.05275             4.58009
H              -1.25860            -2.82100             2.23944
H              -2.32326            -1.40772             2.00780
C               2.53431             1.12193             2.88301
H               3.35377             0.67197             3.44578
H               2.79803             1.15554             1.82789
H               2.35535             2.13677             3.24065
H              -1.06027            -1.77640             0.81471
H               2.38482            -1.86097             0.02049
C               3.06711            -2.74524             0.05922
H               2.68924            -3.49852            -0.63177
H               4.05883            -2.42192            -0.25709
H               3.10439            -3.14119             1.07551
