22
Structure 5
Ag              1.15207            -0.20055            -0.07026
Cl              1.62319            -0.03482            -2.33961
N               1.31725             0.33828             2.99289
C               0.67106            -0.26975             1.95892
N              -0.35905            -0.93531             2.55243
C              -1.33844            -1.74824             1.83635
C               0.70265             0.05344             4.21002
H               1.06715             0.44287             5.14458
C              -0.35265            -0.74824             3.93274
H              -1.08887            -1.19482             4.57808
H              -1.27214            -2.78872             2.15789
H              -2.34518            -1.36945             2.01810
C               2.50777             1.17138             2.84670
H               3.35286             0.71602             3.36525
H               2.73761             1.25117             1.78621
H               2.32039             2.16731             3.25044
H              -1.11804            -1.68607             0.77268
H               2.44707            -1.95772             0.07026
C               3.10550            -2.83231             0.16187
H               2.74201            -3.61508            -0.50469
H               4.11378            -2.54256            -0.13590
H               3.11048            -3.19206             1.19268
