22
Structure 11
Ag              0.97595             0.03614            -0.07741
Cl              1.43099             0.22162            -2.33944
N               1.27517             0.39446             2.99477
C               0.59142            -0.16237             1.95590
N              -0.40005            -0.88105             2.55361
C              -1.39961            -1.66707             1.83513
C               0.72109             0.02664             4.21843
H               1.12254             0.36543             5.15755
C              -0.33333            -0.77613             3.94076
H              -1.03164            -1.27451             4.59028
H              -1.32066            -2.71927             2.11234
H              -2.40128            -1.29959             2.06272
C               2.44403             1.25762             2.84707
H               3.31165             0.80087             3.32546
H               2.64309             1.38022             1.78449
H               2.24851             2.23418             3.29231
H              -1.21167            -1.56173             0.76869
H               2.63430            -2.19914             0.07292
C               3.28538            -3.07061             0.15496
H               2.91795            -3.85272            -0.51071
H               4.29565            -2.78885            -0.14465
H               3.29700            -3.43937             1.18245
