22
Structure 3
Ag              1.22666            -0.30648            -0.05009
Cl              1.67979            -0.11428            -2.32981
N               1.32236             0.32705             3.00436
C               0.69550            -0.30782             1.97469
N              -0.35418            -0.94578             2.56406
C              -1.32361            -1.77227             1.85007
C               0.67666             0.08584             4.21496
H               1.02194             0.50217             5.14521
C              -0.37891            -0.71545             3.93775
H              -1.13462            -1.13474             4.57884
H              -1.26151            -2.80702             2.19060
H              -2.33264            -1.39076             2.01214
C               2.52305             1.14565             2.86010
H               3.35728             0.69103             3.39669
H               2.76680             1.20647             1.80143
H               2.34024             2.14971             3.24526
H              -1.08993            -1.72840             0.78830
H               2.40824            -1.90124             0.05031
C               3.07592            -2.77941             0.12402
H               2.70788            -3.55197            -0.55146
H               4.07822            -2.47680            -0.18029
H               3.09133            -3.15072             1.15048
