22
Structure 15
Ag              0.88424             0.15141            -0.05825
Cl              1.30444             0.38452            -2.32164
N               1.23264             0.44388             3.01507
C               0.53492            -0.09425             1.97552
N              -0.44219            -0.83218             2.57363
C              -1.44948            -1.60814             1.85496
C               0.70076             0.04638             4.23924
H               1.11558             0.36727             5.17884
C              -0.35336            -0.75674             3.96142
H              -1.03792            -1.27344             4.61124
H              -1.36037            -2.66560             2.10802
H              -2.44910            -1.25129             2.10715
C               2.39283             1.31877             2.86755
H               3.26983             0.86075             3.32722
H               2.57755             1.46111             1.80487
H               2.19548             2.28601             3.33194
H              -1.28009            -1.47879             0.78807
H               2.79668            -2.39674             0.03437
C               3.45123            -3.26693             0.08579
H               3.07571            -4.03718            -0.58919
H               4.45642            -2.97689            -0.22304
H               3.48068            -3.65718             1.10483
