22
Structure 6
Ag              1.11809            -0.15334            -0.07628
Cl              1.59240             0.00722            -2.34249
N               1.31286             0.34545             2.98969
C               0.65842            -0.25122             1.95426
N              -0.36327            -0.92852             2.54911
C              -1.34699            -1.73558             1.83230
C               0.71158             0.04211             4.20894
H               1.08428             0.42017             5.14493
C              -0.34355            -0.75978             3.93160
H              -1.07141            -1.21793             4.57831
H              -1.27879            -2.77849             2.14537
H              -2.35268            -1.35823             2.02279
C               2.49886             1.18491             2.84291
H               3.34863             0.72936             3.35353
H               2.72260             1.27313             1.78180
H               2.30951             2.17713             3.25484
H              -1.13261            -1.66526             0.76792
H               2.47136            -1.99104             0.07675
C               3.12676            -2.86452             0.17248
H               2.76410            -3.64995            -0.49156
H               4.13676            -2.57890            -0.12370
H               3.12957            -3.22194             1.20412
