22
Structure 10
Ag              1.00138             0.00319            -0.08010
Cl              1.46338             0.17912            -2.34206
N               1.28440             0.38327             2.99147
C               0.60524            -0.17973             1.95296
N              -0.39096            -0.89204             2.55041
C              -1.38802            -1.68133             1.83210
C               0.72300             0.02532             4.21475
H               1.12001             0.37010             5.15358
C              -0.33152            -0.77733             3.93714
H              -1.03439            -1.26956             4.58643
H              -1.31131            -2.73200             2.11567
H              -2.39034            -1.31164             2.05313
C               2.45606             1.24261             2.84381
H               3.32084             0.78592             3.32739
H               2.65912             1.35968             1.78137
H               2.26151             2.22176             3.28373
H              -1.19531            -1.58226             0.76590
H               2.59729            -2.15314             0.07816
C               3.24817            -3.02482             0.16614
H               2.88243            -3.80911            -0.49787
H               4.25919            -2.74399            -0.13175
H               3.25629            -3.38923             1.19524
