22
Structure 11
Ag              0.36468             0.99559            -0.14154
Cl              0.66744             1.49706            -2.38351
N               0.56835             1.22544             2.95132
C               0.08871             0.54587             1.87178
N              -0.56027            -0.52441             2.41062
C              -1.23863            -1.55754             1.63248
C               0.22532             0.58865             4.14150
H               0.51175             0.97466             5.10423
C              -0.48518            -0.51257             3.80135
H              -0.93924            -1.27558             4.40922
H              -0.75725            -2.52416             1.78859
H              -2.28830            -1.61716             1.92354
C               1.34362             2.46115             2.87498
H               1.38864             2.77196             1.83399
H               0.85937             3.24081             3.46439
H               2.35721             2.29502             3.24173
H              -1.17155            -1.28895             0.58031
H               2.81498             1.19863             0.23476
C               3.88413             1.31644             0.43020
H               4.43222             0.60546            -0.18867
H               4.18498             2.33061             0.16432
H               4.10055             1.12657             1.48336
