22
Structure 4
Ag              0.75136             0.41427            -0.05544
Cl              0.98935             0.27529            -2.36061
N               0.67261             0.96956             3.06025
C               0.19462             0.32679             1.95803
N              -0.74580            -0.52849             2.45436
C              -1.54103            -1.45124             1.64677
C               0.04451             0.52280             4.22026
H               0.28371             0.91737             5.19230
C              -0.84889            -0.41975             3.83827
H              -1.54264            -1.00911             4.41200
H              -1.29947            -2.48289             1.90695
H              -2.60386            -1.26840             1.81059
C               1.71385             1.99230             3.03540
H               1.78306             2.39010             2.02734
H               1.45065             2.79573             3.72365
H               2.67737             1.56602             3.31899
H              -1.30390            -1.28129             0.59848
H               2.96129             1.54450             0.10458
C               3.94080             2.02974             0.16920
H               4.69761             1.35942            -0.23699
H               3.91565             2.95366            -0.40928
H               4.16067             2.25718             1.21384
