22
Structure 8
Ag              0.50143             0.75915            -0.12970
Cl              0.74590             1.02212            -2.42013
N               0.61850             1.11417             2.98292
C               0.11585             0.46067             1.89769
N              -0.65038            -0.53286             2.43195
C              -1.39004            -1.52078             1.65018
C               0.17203             0.53968             4.17064
H               0.45547             0.92075             5.13621
C              -0.62589            -0.49741             3.82369
H              -1.17287            -1.20040             4.42740
H              -0.98468            -2.51893             1.82293
H              -2.44567            -1.49888             1.92420
C               1.48435             2.28839             2.91852
H               1.57446             2.59055             1.87872
H               1.04513             3.10356             3.49506
H               2.47453             2.05160             3.30938
H              -1.28620            -1.26911             0.59675
H               2.89319             1.36010             0.19458
C               3.94730             1.61124             0.34499
H               4.56340             0.89345            -0.19597
H               4.12952             2.61514            -0.04080
H               4.18618             1.58135             1.40973
