22
Structure 1
Ag              0.95144             0.18053             0.03140
Cl              1.20412            -0.17892            -2.25054
N               0.77477             0.80610             3.14836
C               0.31510             0.18230             2.02752
N              -0.77530            -0.51594             2.46071
C              -1.61967            -1.35620             1.61334
C              -0.01285             0.50438             4.25675
H               0.19346             0.90330             5.23459
C              -0.98797            -0.32820             3.82329
H              -1.79996            -0.79929             4.34925
H              -1.60877            -2.38450             1.97743
H              -2.64230            -0.97629             1.61020
C               1.93664             1.68707             3.19086
H               2.41238             1.66863             2.21630
H               1.62982             2.70856             3.42212
H               2.64328             1.33646             3.94444
H              -1.22439            -1.33007             0.59979
H               2.93160             1.68569             0.01357
C               3.79727             2.35725            -0.00478
H               4.66789             1.80100            -0.35167
H               3.58926             3.18195            -0.68610
H               3.97571             2.73971             1.00208
