22
Structure 10
Ag              0.40200             0.92168            -0.14352
Cl              0.68846             1.35587            -2.40184
N               0.58804             1.18877             2.95512
C               0.09388             0.51880             1.87606
N              -0.59074            -0.52836             2.41692
C              -1.29292            -1.54714             1.64077
C               0.21756             0.56990             4.14658
H               0.50856             0.95324             5.10900
C              -0.52405            -0.51099             3.80790
H              -1.00510            -1.25631             4.41696
H              -0.83187            -2.52382             1.79569
H              -2.34267            -1.58410             1.93516
C               1.38846             2.40827             2.87941
H               1.45319             2.71021             1.83710
H               0.91168             3.20162             3.45660
H               2.39350             2.22563             3.26123
H              -1.22337            -1.28052             0.58824
H               2.83880             1.25306             0.22928
C               3.90491             1.41019             0.41459
H               4.47364             0.69585            -0.18088
H               4.17145             2.42459             0.11487
H               4.12812             1.26712             1.47368
