22
Structure 16
Ag              0.32569             1.33438            -0.04626
Cl              0.60568             2.00687            -2.24600
N               0.42287             1.42569             3.05573
C               0.09624             0.72894             1.93128
N              -0.38814            -0.45543             2.39923
C              -0.86759            -1.54450             1.55248
C               0.14927             0.68709             4.20437
H               0.33964             1.06758             5.19273
C              -0.36163            -0.49682             3.79126
H              -0.70463            -1.35091             4.34873
H              -0.25325            -2.43408             1.69936
H              -1.90833            -1.77220             1.78727
C               1.00605             2.76472             3.05715
H               1.07377             3.10645             2.02643
H               0.37267             3.44924             3.62297
H               2.00565             2.73977             3.49351
H              -0.79463            -1.22486             0.51506
H               2.77129             0.91987             0.13828
C               3.84758             0.76849             0.25457
H               4.17694             0.02781            -0.47536
H               4.36187             1.71126             0.06415
H               4.07451             0.41419             1.26201
