179
cdex_Au_opt_xtb.log
Au         0.02232       -0.09851        0.12723
Cl         0.10242       -0.08874       -2.12180
N         -0.06665       -1.13051        3.00932
N         -0.10170        1.01097        2.94687
C         -0.04664       -0.08149        2.16384
C         -0.14016       -0.69747        4.30467
H         -0.16522       -1.37112        5.13563
C         -0.16612        0.65553        4.26407
H         -0.22190        1.37618        5.05314
O         -0.23706       -3.78803        0.06267
O          1.82059       -6.01807       -0.17890
O          4.41967       -4.74436        0.12532
O          2.30472       -2.93481        2.46117
C          0.80394       -4.17088        0.93716
H          0.47721       -4.97490        1.61275
C          2.03500       -4.66303        0.15048
H          2.12839       -4.05029       -0.75294
C          3.32816       -4.52229        0.97659
H          3.31210       -5.26716        1.79133
C          3.41812       -3.11151        1.61430
H          4.29140       -3.03967        2.27545
C          1.10820       -2.87748        1.70662
H          1.20354       -2.09733        0.93849
C         -0.05127       -2.52161        2.63442
H         -0.97790       -2.76606        2.10868
H          0.02357       -3.12152        3.54388
C          2.31461       -6.39984       -1.45022
H          3.39093       -6.22720       -1.51871
H          1.79763       -5.84387       -2.23735
H          2.10046       -7.46328       -1.54281
C          5.61789       -4.97936        0.70014
H          6.29148       -5.30124       -0.09599
H          6.05990       -4.08868        1.17191
O          3.46289       -2.16812        0.59849
O          5.57059       -1.99249       -1.21941
O          5.94106        0.64380       -2.25866
O          4.66938        1.26579        1.12342
O          4.65806       -0.58929        3.41976
C          4.41386       -1.11848        0.66067
H          5.29367       -1.42372        1.23978
C          4.83635       -0.86861       -0.79462
H          3.93020       -0.74104       -1.39835
C          5.67696        0.41210       -0.89967
H          6.61967        0.26466       -0.34591
C          4.91483        1.57889       -0.23090
H          5.54598        2.47512       -0.20890
C          3.81050        0.15174        1.28635
H          2.85199        0.35235        0.77876
C          3.54472       -0.01509        2.78236
H          3.32790        0.97506        3.21477
H          2.66717       -0.66156        2.91879
C          5.26730       -2.42742       -2.52705
H          5.89799       -3.29651       -2.70430
H          5.48748       -1.64814       -3.26237
H          4.21500       -2.71853       -2.60584
C          6.89812        1.64409       -2.52204
H          7.81715        1.46843       -1.95083
H          6.51967        2.64572       -2.29460
H          7.11222        1.57714       -3.58726
C          4.40824       -0.88336        4.77071
H          5.32411       -1.31468        5.16911
H          3.58640       -1.60422        4.86847
H          4.15562        0.02257        5.33606
O          3.73447        1.80788       -0.93226
O          2.63999        2.89079       -3.42892
O         -0.03476        4.09361       -2.71823
O          2.08220        4.94391        0.05078
O          5.15298        4.77034        0.17623
C          3.30097        3.14872       -1.12187
H          4.09286        3.74207       -1.59885
C          2.12635        3.02442       -2.12364
H          1.53084        2.14611       -1.84379
C          1.22428        4.26760       -2.11788
H          1.77991        5.07781       -2.62106
C          0.91290        4.69348       -0.67382
H          0.36727        5.64217       -0.67505
C          2.92124        3.81284        0.21444
H          2.39275        3.05248        0.81011
C          4.12553        4.31416        1.02549
C          2.97827        1.57018       -3.81690
H          3.88301        1.22186       -3.31388
H          3.14776        1.61563       -4.89199
H          2.15842        0.87956       -3.60210
C         -0.06168        3.47374       -3.99130
H          0.10207        2.39704       -3.91518
H          0.68390        3.91211       -4.65899
H         -1.06360        3.65698       -4.37976
O          0.14728        3.67483       -0.08032
O         -1.86473        5.95127       -0.30491
O         -4.50345        5.03623        0.45119
O         -2.38757        2.79761        2.33659
C         -0.87137        4.05818        0.82503
H         -0.50023        4.82319        1.52384
C         -2.11264        4.61837        0.10322
H         -2.31994        3.98164       -0.76277
C         -3.32089        4.57926        1.06180
H         -3.08819        5.19287        1.94401
C         -3.51438        3.12809        1.54677
H         -4.37571        3.06085        2.22441
C         -1.20806        2.74659        1.56192
H         -1.31193        1.98388        0.77638
C         -0.04680        2.37027        2.48235
H         -0.05762        3.03109        3.35185
H          0.87582        2.52076        1.91623
C         -2.24982        6.23351       -1.63926
H         -1.67955        5.61697       -2.33897
H         -2.01857        7.28596       -1.79714
H         -3.32046        6.06449       -1.78640
C         -4.85640        6.36562        0.76752
H         -4.06395        7.06868        0.49792
H         -5.07936        6.46846        1.83607
H         -5.75278        6.58066        0.18901
O         -3.66621        2.30126        0.44536
O         -5.86264        1.82325       -1.41687
O         -5.87750       -0.77702       -2.35164
O         -4.68694       -1.20265        1.07839
O         -4.47798        0.80594        3.39412
C         -4.54159        1.18439        0.53685
H         -5.43024        1.44654        1.12585
C         -4.96609        0.86487       -0.91207
H         -4.06191        0.80841       -1.53289
C         -5.69840       -0.47879       -0.99208
H         -6.67435       -0.36250       -0.49253
C         -4.91654       -1.58592       -0.25266
H         -5.53789       -2.48670       -0.19513
C         -3.84794       -0.02816        1.18948
H         -2.91605       -0.22978        0.63920
C         -3.52845        0.19745        2.61398
H         -3.29864       -0.80555        3.04538
C         -5.27496        2.93791       -2.05314
H         -4.83039        3.62238       -1.32745
H         -6.08816        3.43756       -2.57849
H         -4.51541        2.61966       -2.77458
C         -6.84599       -1.76129       -2.62290
H         -6.53438       -2.75374       -2.27946
H         -6.95746       -1.77701       -3.70542
H         -7.80606       -1.50639       -2.15870
C         -4.05079        1.12572        4.69240
H         -3.21319        1.83348        4.66279
H         -3.73751        0.22602        5.23892
H         -4.90269        1.57889        5.19328
O         -3.72377       -1.84564       -0.93121
O         -2.57557       -2.98635       -3.38061
O          0.04173       -4.25302       -2.56500
O         -2.19065       -5.01552        0.13485
O         -5.24647       -4.74581        0.22223
C         -3.31990       -3.19761       -1.09053
H         -4.11213       -3.77900       -1.58149
C         -2.11167       -3.11986       -2.05777
H         -1.50087       -2.25581       -1.76614
C         -1.24353       -4.38684       -2.00985
H         -1.80205       -5.18664       -2.52579
C         -0.99396       -4.80302       -0.55186
H         -0.45915       -5.75782       -0.52356
C         -2.99046       -3.85000        0.26549
H         -2.44135       -3.09715        0.85181
C         -4.22004       -4.28916        1.07244
H         -3.89380       -5.10594        1.73344
H         -4.58328       -3.45563        1.69046
C         -2.87088       -1.66145       -3.78944
H         -2.03920       -0.98993       -3.55897
H         -3.78089       -1.28690       -3.31572
H         -3.01092       -1.71350       -4.86845
C          0.12706       -3.65689       -3.84731
H         -0.60923       -4.08588       -4.53116
H          1.13514       -3.87472       -4.20091
H         -0.00830       -2.57472       -3.79542
C         -6.33319       -5.28152        0.93382
C          6.20636        5.37264        0.88514
H         -7.06614       -5.59377        0.19263
H         -6.77903       -4.53184        1.60001
H         -6.02642       -6.14761        1.53220
H          6.94268        5.68000        0.14526
H          6.66432        4.66674        1.58972
H          5.85823        6.25105        1.44138
H          3.76621        5.14228        1.65417
H          4.50310        3.51135        1.67447
H          5.56929       -5.77680        1.46151
H         -2.59183        0.76411        2.67148
