22
Structure 14
Au              1.23814             1.00871             0.07106
Cl              1.99646             1.35764            -2.08288
N               0.80959             1.44629             3.05078
C               0.60251             0.67744             1.94392
N              -0.07566            -0.41285             2.40348
C              -0.48446            -1.54616             1.57666
C               0.26644             0.84352             4.18248
H               0.32146             1.29814             5.15603
C              -0.28724            -0.32318             3.77660
H              -0.80776            -1.08702             4.32715
H               0.11246            -2.42588             1.82148
H              -1.54216            -1.75740             1.73705
C               1.50672             2.73012             3.05347
H               2.39782             2.67061             3.68004
H               1.79925             2.95692             2.03067
H               0.84482             3.51380             3.42465
H              -0.31991            -1.28219             0.53455
H               2.61410            -0.97605             0.23399
C               3.19726            -1.89949             0.31957
H               2.88134            -2.59844            -0.45602
H               4.25286            -1.65977             0.18418
H               3.05825            -2.34906             1.30554
