22
Structure 6
Au              0.88356             0.58466            -0.07083
Cl              1.45739             0.80638            -2.29738
N               0.90499             1.07912             2.92335
C               0.39161             0.39088             1.86392
N              -0.51673            -0.46347             2.41568
C              -1.32887            -1.41544             1.66167
C               0.32657             0.65647             4.11721
H               0.60040             1.07942             5.06782
C              -0.56563            -0.31045             3.79884
H              -1.22359            -0.89554             4.41711
H              -1.09650            -2.43481             1.97325
H              -2.38841            -1.21157             1.82230
C               1.94321             2.10244             2.82587
H               2.84923             1.76720             3.33277
H               2.15950             2.26455             1.77229
H               1.59109             3.03332             3.27210
H              -1.09365            -1.29763             0.60624
H               2.95186            -0.60242             0.34401
C               3.89884            -1.10953             0.55952
H               3.96109            -2.01180            -0.05067
H               4.72595            -0.44606             0.30299
H               3.95038            -1.38000             1.61642
