22
Structure 15
Au              1.29364             1.02926             0.09780
Cl              2.06218             1.40033            -2.04879
N               0.79830             1.47405             3.06544
C               0.63800             0.68887             1.96222
N              -0.02662            -0.41208             2.41633
C              -0.40023            -1.55803             1.59020
C               0.24168             0.86989             4.18980
H               0.26258             1.33505             5.15968
C              -0.27445            -0.31347             3.78279
H              -0.79079            -1.08371             4.32836
H               0.19282            -2.43097             1.86608
H              -1.46166            -1.77366             1.71698
C               1.46551             2.77369             3.07210
H               2.34369             2.74032             3.71855
H               1.77505             2.99892             2.05396
H               0.77749             3.54463             3.42181
H              -0.20209            -1.30595             0.55114
H               2.58502            -1.01513             0.20677
C               3.13427            -1.96112             0.26820
H               2.79137            -2.62870            -0.52348
H               4.19759            -1.75723             0.13558
H               2.97896            -2.42926             1.24297
