22
Structure 9
Au              0.98938             0.76451            -0.02088
Cl              1.60510             1.05617            -2.22806
N               0.86704             1.23101             2.97836
C               0.45821             0.50855             1.89646
N              -0.36655            -0.44713             2.41226
C              -1.04331            -1.47519             1.62519
C               0.30487             0.73147             4.15016
H               0.50520             1.16767             5.11303
C              -0.46869            -0.32105             3.79513
H              -1.07538            -0.98321             4.38758
H              -0.69611            -2.46510             1.92468
H              -2.12257            -1.40266             1.76600
C               1.78017             2.37002             2.92150
H               2.68716             2.15110             3.48681
H               2.03776             2.54388             1.87910
H               1.29500             3.25813             3.32869
H              -0.80288            -1.31040             0.57724
H               2.84648            -0.75524             0.29638
C               3.68579            -1.44021             0.45996
H               3.59032            -2.28818            -0.21972
H               4.61851            -0.91414             0.25140
H               3.68677            -1.79427             1.49319
