22
Structure 17
Au              1.41076             1.04824             0.16163
Cl              2.18896             1.48246            -1.96959
N               0.77599             1.51954             3.09430
C               0.71169             0.69628             2.00880
N               0.05644            -0.41304             2.45661
C              -0.25980            -1.58295             1.64016
C               0.17571             0.92801             4.20260
H               0.12502             1.42050             5.15777
C              -0.27512            -0.28399             3.80276
H              -0.79702            -1.05600             4.34046
H               0.31420            -2.44625             1.97864
H              -1.32711            -1.79790             1.70364
C               1.39737             2.84181             3.10128
H               2.23866             2.85689             3.79573
H               1.75480             3.05198             2.09568
H               0.66459             3.59615             3.39103
H               0.00403            -1.35983             0.60958
H               2.54203            -1.09158             0.13875
C               3.04335            -2.06615             0.14334
H               2.65964            -2.67038            -0.68013
H               4.11437            -1.91116             0.00952
H               2.86373            -2.57693             1.09192
