22
Structure 13
Cu              0.23938             1.33385             0.08370
Cl              0.39790             2.07710            -1.92921
N               0.67792             1.25384             3.01809
C               0.14695             0.67565             1.90286
N              -0.42936            -0.47047             2.36505
C              -1.13303            -1.43118             1.52050
C               0.43942             0.48149             4.15122
H               0.78247             0.77096             5.12921
C              -0.25864            -0.60429             3.74029
H              -0.64421            -1.44491             4.29038
H              -0.64619            -2.40629             1.57217
H              -2.17314            -1.52205             1.83754
C               1.42150             2.51066             3.01336
H               2.45863             2.33769             3.30408
H               1.39824             2.91500             2.00366
H               0.95865             3.22253             3.69821
H              -1.10028            -1.06766             0.49534
H               2.65229             1.20429             0.22587
C               3.73786             1.18699             0.33986
H               4.15436             0.52779            -0.42267
H               4.12746             2.19468             0.19039
H               4.01514             0.81746             1.32905
