22
Structure 3
Cu              0.75392             0.51010             0.10701
Cl              0.77748             0.37619            -2.04637
N               0.82269             0.88823             3.13388
C               0.30182             0.34891             1.99487
N              -0.68351            -0.48290             2.44594
C              -1.54001            -1.29144             1.58020
C               0.17858             0.40141             4.26809
H               0.44851             0.71338             5.26188
C              -0.77082            -0.46133             3.83408
H              -1.49312            -1.04682             4.37568
H              -1.41420            -2.35017             1.81164
H              -2.58457            -1.00634             1.71432
C               1.92634             1.84224             3.16314
H               2.86424             1.33895             3.40497
H               2.01090             2.30143             2.18297
H               1.72247             2.61341             3.90641
H              -1.24923            -1.11350             0.54621
H               2.87150             1.68163             0.05731
C               3.83589             2.19723             0.03609
H               4.57291             1.54869            -0.43634
H               3.72826             3.11725            -0.53883
H               4.14324             2.43656             1.05581
