22
Structure 12
Cu              0.25884             1.26738             0.06460
Cl              0.40708             1.96553            -1.96520
N               0.70029             1.21733             3.00425
C               0.14632             0.64649             1.89634
N              -0.46080            -0.47869             2.37086
C              -1.19409            -1.42702             1.53747
C               0.44405             0.46184             4.14496
H               0.79932             0.74985             5.11900
C              -0.28740            -0.60630             3.74626
H              -0.69486            -1.43071             4.30504
H              -0.73079            -2.41342             1.59143
H              -2.23358            -1.49052             1.86304
C               1.46832             2.45929             2.99007
H               2.50202             2.26894             3.28163
H               1.45236             2.85717             1.97793
H               1.01924             3.18443             3.67021
H              -1.16049            -1.07070             0.50980
H               2.67322             1.25595             0.23699
C               3.75819             1.28071             0.35671
H               4.20383             0.61814            -0.38585
H               4.11114             2.29849             0.18575
H               4.04111             0.94893             1.35764
