22
Structure 1
Cu              0.91125             0.28563             0.13291
Cl              1.06274            -0.01152            -1.99910
N               0.86623             0.82300             3.12889
C               0.36718             0.24185             2.00106
N              -0.70977            -0.46941             2.44653
C              -1.57875            -1.27308             1.58875
C               0.11726             0.48123             4.25105
H               0.35688             0.84389             5.23520
C              -0.87612            -0.33322             3.82099
H              -1.67222            -0.81961             4.35694
H              -1.55273            -2.31764             1.90258
H              -2.60255            -0.89916             1.63714
C               2.04052             1.69203             3.14453
H               2.91461             1.14675             2.79175
H               1.87459             2.55479             2.50146
H               2.21333             2.03030             4.16503
H              -1.21665            -1.19673             0.56491
H               2.86718             1.71038             0.07330
C               3.74634             2.36009             0.03895
H               4.59039             1.79172            -0.35124
H               3.53509             3.20349            -0.61828
H               3.96850             2.71833             1.04559
