22
Structure 16
Cu              0.24900             1.52172             0.16757
Cl              0.38965             2.33076            -1.82101
N               0.59601             1.37335             3.11443
C               0.16362             0.79141             1.95942
N              -0.32059            -0.41923             2.35842
C              -0.89772            -1.40864             1.45313
C               0.38777             0.54052             4.21008
H               0.66544             0.82288             5.21064
C              -0.19006            -0.58848             3.73412
H              -0.51515            -1.48148             4.23888
H              -0.31829            -2.33263             1.48523
H              -1.93331            -1.61387             1.72877
C               1.21884             2.69215             3.18168
H               2.24307             2.60762             3.54824
H               1.23185             3.11143             2.17754
H               0.64469             3.34728             3.83854
H              -0.86841            -1.00156             0.44434
H               2.62228             1.04634             0.14203
C               3.69634             0.85316             0.17198
H               3.95103             0.17623            -0.64445
H               4.22942             1.79483             0.03518
H               3.97782             0.39933             1.12419
