22
Structure 17
Cu              0.26363             1.58348             0.19626
Cl              0.40257             2.40999            -1.78527
N               0.56900             1.41374             3.14872
C               0.17218             0.83405             1.97997
N              -0.27801            -0.39700             2.35587
C              -0.80772            -1.39291             1.42896
C               0.37181             0.55991             4.23026
H               0.62558             0.83774             5.23840
C              -0.16200            -0.58061             3.73096
H              -0.46496            -1.49049             4.21907
H              -0.19673            -2.29649             1.45646
H              -1.83912            -1.63796             1.68715
C               1.14341             2.75269             3.24354
H               2.16038             2.70007             3.63525
H               1.16668             3.18222             2.24391
H               0.53065             3.38108             3.89164
H              -0.77896            -0.97078             0.42634
H               2.60872             0.98958             0.11296
C               3.66998             0.73334             0.11183
H               3.86463             0.05405            -0.71900
H               4.25306             1.64474            -0.02604
H               3.94852             0.25269             1.05168
