22
Structure 6
Cu              0.56545             0.76049             0.06582
Cl              0.56262             0.91311            -2.08392
N               0.78053             0.98997             3.08414
C               0.23125             0.45324             1.95715
N              -0.63285            -0.49258             2.43043
C              -1.46011            -1.34823             1.58268
C               0.26892             0.39249             4.23301
H               0.57769             0.68630             5.22105
C              -0.62076            -0.54155             3.82076
H              -1.24028            -1.22125             4.37943
H              -1.19440            -2.39589             1.73190
H              -2.51550            -1.19898             1.81551
C               1.76300             2.06911             3.09088
H               2.74315             1.69238             3.38722
H               1.82758             2.47985             2.08748
H               1.44606             2.85158             3.78148
H              -1.27970            -1.07700             0.54396
H               2.84823             1.56370             0.11981
C               3.88507             1.90932             0.14790
H               4.50379             1.21778            -0.42302
H               3.93505             2.90348            -0.29759
H               4.22851             1.95581             1.18288
