22
Structure 15
Cu              0.23669             1.45998             0.13728
Cl              0.38676             2.25299            -1.85715
N               0.62357             1.33269             3.07724
C               0.15556             0.74931             1.93698
N              -0.36024            -0.44002             2.35969
C              -0.98376            -1.42168             1.47709
C               0.40684             0.52113             4.18712
H               0.70920             0.80774             5.17928
C              -0.21362            -0.59518             3.73547
H              -0.55914            -1.47049             4.25736
H              -0.43694            -2.36506             1.51621
H              -2.02227            -1.58596             1.76876
C               1.29458             2.62894             3.11568
H               2.32804             2.50969             3.44462
H               1.28604             3.04439             2.10997
H               0.76780             3.30558             3.79006
H              -0.95318            -1.03100             0.46189
H               2.63010             1.10034             0.17436
C               3.71224             0.97206             0.23934
H               4.03000             0.30199            -0.56054
H               4.19354             1.94140             0.10407
H               3.99150             0.54426             1.20417
