22
Structure 5
Cu              0.62930             0.67306             0.07805
Cl              0.62575             0.72413            -2.07742
N               0.79267             0.95488             3.10218
C               0.25443             0.41701             1.97052
N              -0.65283            -0.49113             2.43730
C              -1.49021            -1.33110             1.58346
C               0.23346             0.39415             4.24736
H               0.52768             0.69432             5.23791
C              -0.67694            -0.51649             3.82801
H              -1.33338            -1.16477             4.38182
H              -1.27257            -2.38497             1.76343
H              -2.54477            -1.13351             1.78147
C               1.81924             1.99193             3.11546
H               2.78843             1.56902             3.38497
H               1.88328             2.42439             2.12135
H               1.54648             2.76912             3.83021
H              -1.26892            -1.09151             0.54481
H               2.86220             1.60735             0.09649
C               3.87771             2.01273             0.10727
H               4.53622             1.33108            -0.43001
H               3.87144             2.98581            -0.38480
H               4.21464             2.12761             1.13908
